scripts/data/matpower/EMS/ems_base_seco.m
%% MATPOWER Case Format : Version 2
function mpc = ems_base_seco
mpc.version = '2';

%%-----  Power Flow Data  -----%%
%% system MVA base
mpc.baseMVA = 100.0;
%% bus data
%    bus_i    type    Pd    Qd    Gs    Bs    area    Vm    Va    baseKV    zone    Vmax    Vmin
mpc.bus = [
	10	2	32.0	15.5	0.0	0.0	251	0.953	-9.5	992.0	1	1.05	0.95				
	11	2	0.0	0.0	0.0	0.0	251	0.95	-1.9	992.0	1	1.05	0.95				
	12	2	0.0	0.0	0.0	0.0	204	0.986	7.23	992.0	1	1.05	0.95				
	13	2	0.0	0.0	0.0	0.0	204	1.0	2.08	990.0	1	1.05	0.95				
	14	2	0.0	0.0	0.0	0.0	255	1.026	-25.0	992.0	1	1.05	0.95				
	16	2	0.0	0.0	0.0	0.0	352	0.996	-1.6	992.0	1	1.05	0.95				
	17	2	0.0	0.0	0.0	0.0	352	1.009	-7.0	990.0	1	1.05	0.95				
	18	2	0.0	0.0	0.0	0.0	351	0.975	21.5	992.0	1	1.05	0.95				
	19	2	0.0	0.0	0.0	0.0	351	0.994	14.1	990.0	1	1.05	0.95				
	20	2	0.0	0.0	0.0	0.0	351	1.026	15.8	992.0	1	1.05	0.95				
	21	2	0.0	0.0	0.0	0.0	472	0.975	33.7	992.0	1	1.05	0.95				
	22	2	0.0	0.0	0.0	0.0	352	0.966	5.85	992.0	1	1.05	0.95				
	24	2	0.0	0.0	0.0	0.0	208	0.95	4.7	992.0	1	1.05	0.95				
	28	2	0.0	0.0	0.0	0.0	208	0.961	14.500000000000002	992.0	1	1.05	0.95				
	30	2	0.0	0.0	0.0	0.0	254	1.006	-17.0	992.0	1	1.05	0.95				
	31	2	0.0	0.0	0.0	0.0	254	0.963	-17.0	992.0	1	1.05	0.95				
	32	2	0.0	0.0	0.0	0.0	254	1.006	-17.0	992.0	1	1.05	0.95				
	35	2	0.0	0.0	0.0	0.0	512	0.96	20.2	992.0	1	1.05	0.95				
	36	2	0.0	0.0	0.0	0.0	511	0.95	20.7	992.0	1	1.05	0.95				
	37	2	0.0	0.0	0.0	0.0	511	0.958	16.3	990.0	1	1.05	0.95				
	38	2	0.0	0.0	0.0	0.0	251	0.976	-18.0	13.8	1	1.05	0.95				
	41	2	0.0	0.0	0.0	0.0	302	0.999	-36.0	990.0	1	1.05	0.95				
	42	1	0.0	0.0	0.0	-36.5	512	0.984	10.1	345.0	1	1.05	0.95				
	43	1	0.0	0.0	0.0	-36.5	512	0.984	10.1	345.0	1	1.05	0.95				
	44	2	0.0	0.0	0.0	0.0	251	0.976	-18.0	13.8	1	1.05	0.95				
	46	1	0.0	0.0	0.0	-29.2	252	1.01	-29.000000000000004	345.0	1	1.05	0.95				
	47	2	0.0	0.0	0.0	0.0	302	0.998	-36.0	990.0	1	1.05	0.95				
	48	2	0.0	0.0	0.0	0.0	204	0.994	-14.0	20.0	1	1.05	0.95				
	50	2	0.0	0.0	0.0	0.0	201	0.955	-18.0	20.0	1	1.05	0.95				
	52	1	0.0	0.0	0.0	0.0	252	1.018	-29.000000000000004	345.0	1	1.05	0.95				
	53	2	0.0	0.0	0.0	0.0	252	1.018	-29.000000000000004	20.0	1	1.05	0.95				
	54	2	0.0	0.0	0.0	0.0	252	1.018	-29.000000000000004	20.0	1	1.05	0.95				
	55	1	0.0	0.0	0.0	28.87	513	1.019	3.56	230.0	1	1.05	0.95				
	56	1	0.0	0.0	0.0	0.0	201	1.014	-11.0	69.0	1	1.05	0.95				
	57	1	0.0	0.0	0.0	0.0	201	1.014	-11.0	69.0	1	1.05	0.95				
	58	1	0.0	0.0	0.0	0.0	201	1.014	-11.0	991.0	1	1.9	0.4				
	59	1	0.0	0.0	0.0	0.0	201	1.014	-11.0	991.0	1	1.9	0.4				
	60	1	0.0	0.0	0.0	0.0	201	0.967	2.97	765.0	1	1.046	0.9				
	61	1	0.0	0.0	0.0	0.0	101	1.006	6.06	500.0	1	1.1	1.0				
	62	1	0.0	0.0	0.0	0.0	201	1.029	-13.0	765.0	1	1.046	0.9				
	63	1	0.0	0.0	0.0	0.0	201	1.029	-13.0	765.0	1	1.046	0.9				
	64	1	0.0	0.0	0.0	0.0	201	1.026	-13.0	765.0	1	1.046	0.9				
	65	1	0.0	0.0	0.0	0.0	201	1.014	-7.300000000000001	765.0	1	1.046	0.9				
	66	1	0.0	0.0	0.0	0.0	101	1.025	-10.0	525.0	1	1.048	0.95				
	67	1	0.24	0.0	0.0	0.0	201	1.014	-11.0	69.0	1	1.05	0.95				
	68	1	0.0	0.0	0.0	0.0	201	1.014	-11.0	991.0	1	1.9	0.4				
	69	1	0.0	0.0	0.0	0.0	201	1.004	-4.3	765.0	1	1.046	0.9				
	70	1	0.0	0.0	0.0	0.0	201	1.005	-4.3	765.0	1	1.046	0.9				
	71	1	0.0	0.0	0.0	0.0	201	1.004	-4.3	765.0	1	1.046	0.9				
	72	1	0.0	0.0	0.0	-330.0	201	1.015	-10.0	765.0	1	1.046	0.9				
	73	1	0.0	0.0	0.0	0.0	201	1.0	-6.6	765.0	1	1.046	0.9				
	74	1	0.0	0.0	0.0	0.0	201	1.0	-6.6	765.0	1	1.046	0.9				
	75	1	0.0	0.0	0.0	0.0	201	0.997	-6.8	765.0	1	1.046	0.9				
	76	1	0.0	0.0	0.0	0.0	201	0.95	-14.0	765.0	1	1.046	0.9				
	77	1	0.0	0.0	0.0	0.0	202	1.06	-13.0	500.0	1	1.1	1.0				
	78	1	0.0	0.0	0.0	0.0	204	1.02	-18.0	345.0	1	1.05	0.95				
	79	1	0.0	0.0	0.0	0.0	201	0.961	-13.0	69.0	1	1.9	0.4				
	80	1	0.0	0.0	0.0	0.0	201	0.961	-13.0	991.0	1	1.9	0.4				
	81	1	0.0	0.0	0.0	0.0	201	0.919	-18.0	991.0	1	1.9	0.4				
	82	1	0.0	0.0	0.0	0.0	204	1.02	-18.0	345.0	1	1.05	0.95				
	84	1	0.0	0.0	0.0	0.0	255	1.004	-12.000000000000002	138.0	1	1.05	0.95				
	85	1	60.0	0.0	0.0	1540.0	241	1.032	-2.6	500.0	1	1.1	1.0				
	86	1	0.0	0.0	0.0	2024.4	204	1.001	-14.0	345.0	1	1.05	0.95				
	87	1	0.0	0.0	0.0	0.0	251	1.06	-10.0	500.0	1	1.1	1.0				
	90	1	0.0	0.0	0.0	0.0	302	1.003	-35.0	345.0	1	1.05	0.95				
	91	1	0.0	0.0	0.0	0.0	302	0.993	-37.0	13.8	1	1.9	0.4				
	92	1	0.0	0.0	0.0	0.0	511	1.024	7.699999999999999	500.0	1	1.1	1.0				
	93	1	0.0	0.0	0.0	0.0	511	1.073	8.77	500.0	1	1.1	1.0				
	94	1	0.0	0.0	0.0	0.0	511	1.076	8.47	500.0	1	1.1	1.0				
	95	1	0.0	0.0	0.0	0.0	302	0.993	-37.0	13.8	1	1.9	0.4				
	96	1	0.0	0.0	0.0	0.0	302	0.993	-37.0	13.8	1	1.9	0.4				
	99	1	0.0	0.0	0.0	-90.7	202	1.082	-0.18	500.0	1	1.1	1.0				
	100	1	0.0	0.0	0.0	-100.0	351	1.074	10.8	500.0	1	1.1	1.0				
	101	1	0.0	0.0	0.0	0.0	202	1.061	3.81	500.0	1	1.1	1.0				
	102	1	0.0	0.0	0.0	0.0	351	1.066	-3.4	500.0	1	1.1	1.0				
	103	1	0.0	0.0	0.0	0.0	202	1.038	-12.000000000000002	500.0	1	1.1	1.0				
	104	1	0.0	0.0	0.0	-136.0	202	1.068	-9.5	500.0	1	1.1	1.0				
	105	1	0.0	0.0	0.0	0.0	251	1.039	-9.200000000000001	500.0	1	1.1	1.0				
	106	1	0.0	0.0	0.0	0.0	251	1.052	-13.0	500.0	1	1.1	1.0				
	107	1	0.0	0.0	0.0	0.0	251	1.038	-14.0	500.0	1	1.1	1.0				
	108	1	0.0	0.0	0.0	0.0	251	1.038	-14.0	500.0	1	1.1	1.0				
	109	1	0.0	0.0	0.0	0.0	251	1.052	-13.0	500.0	1	1.1	1.0				
	110	1	0.0	0.0	0.0	0.0	251	0.984	-18.0	991.0	1	1.9	0.4				
	112	1	0.0	0.0	0.0	0.0	101	1.052	-29.999999999999996	500.0	1	1.1	1.0				
	113	1	0.0	0.0	0.0	0.0	101	1.052	-29.999999999999996	500.0	1	1.1	1.0				
	114	1	0.0	0.0	0.0	0.0	101	1.052	-29.999999999999996	500.0	1	1.1	1.0				
	115	1	0.0	0.0	0.0	0.0	202	1.073	-44.0	500.0	1	1.1	1.0				
	116	1	0.0	0.0	0.0	0.0	256	1.023	-22.0	138.0	1	1.05	0.95				
	118	1	0.0	0.0	0.0	0.0	512	0.975	8.75	991.0	1	1.9	0.4				
	119	1	0.0	0.0	0.0	0.0	512	0.975	8.75	13.8	1	1.9	0.4				
	120	1	0.0	0.0	0.0	0.0	352	1.007	-10.0	345.0	1	1.05	0.95				
	121	1	0.0	0.0	0.0	0.0	351	1.005	-12.000000000000002	991.0	1	1.9	0.4				
	122	1	0.0	0.0	0.0	0.0	202	1.065	-18.0	500.0	1	1.1	1.0				
	123	1	0.0	0.0	0.0	100.0	204	0.993	-14.999999999999998	345.0	1	1.05	0.95				
	124	1	0.0	0.0	0.0	0.0	202	1.007	-16.0	991.0	1	1.9	0.4				
	125	1	0.0	0.0	0.0	0.0	202	1.03	-6.5	500.0	1	1.1	1.0				
	126	1	0.0	0.0	0.0	100.0	204	1.007	-20.0	345.0	1	1.05	0.95				
	127	1	0.0	0.0	0.0	0.0	204	1.012	-19.0	345.0	1	1.05	0.95				
	128	1	0.0	0.0	0.0	0.0	204	1.012	-19.0	345.0	1	1.05	0.95				
	129	1	0.0	0.0	0.0	0.0	204	1.012	-19.0	345.0	1	1.05	0.95				
	130	1	0.0	0.0	0.0	0.0	202	1.03	-6.5	500.0	1	1.1	1.0				
	131	1	0.0	0.0	0.0	0.0	352	1.001	0.625	345.0	1	1.05	0.95				
	133	1	0.0	0.0	0.0	0.0	252	0.998	-20.0	991.0	1	1.9	0.4				
	134	1	0.0	0.0	0.0	0.0	204	1.0	2.08	345.0	1	1.05	0.95				
	135	1	0.0	0.0	0.0	0.0	252	1.018	-19.0	991.0	1	1.9	0.4				
	136	1	0.0	0.0	0.0	0.0	352	1.011	-7.0	345.0	1	1.05	0.95				
	137	1	0.0	0.0	0.0	0.0	252	1.018	-19.0	991.0	1	1.9	0.4				
	138	1	0.0	0.0	0.0	0.0	352	1.018	-17.0	345.0	1	1.05	0.95				
	139	1	0.0	0.0	0.0	0.0	251	1.052	-16.0	991.0	1	1.9	0.4				
	140	1	0.0	0.0	0.0	0.0	252	0.997	-17.0	345.0	1	1.05	0.95				
	141	1	0.0	0.0	0.0	0.0	251	1.076	-18.0	991.0	1	1.9	0.4				
	142	1	0.0	0.0	0.0	0.0	251	1.073	-18.0	991.0	1	1.9	0.4				
	143	1	0.0	0.0	0.0	0.0	252	0.998	-20.0	991.0	1	1.9	0.4				
	144	1	0.0	0.0	0.0	0.0	252	1.024	-18.0	345.0	1	1.05	0.95				
	145	1	0.0	0.0	0.0	0.0	252	0.998	-20.0	991.0	1	1.9	0.4				
	146	1	0.0	0.0	0.0	0.0	252	0.997	-20.0	991.0	1	1.9	0.4				
	147	1	0.0	0.0	0.0	60.0	252	1.016	-29.000000000000004	345.0	1	1.05	0.95				
	148	1	0.0	0.0	0.0	0.0	252	1.001	-31.0	991.0	1	1.9	0.4				
	149	1	0.0	0.0	0.0	-120.0	302	0.998	-36.0	345.0	1	1.05	0.95				
	150	1	0.0	0.0	0.0	0.0	302	0.993	-39.0	991.0	1	1.9	0.4				
	152	1	0.0	0.0	0.0	0.0	302	0.993	-39.0	991.0	1	1.9	0.4				
	153	1	0.0	0.0	0.0	0.0	302	0.993	-39.0	991.0	1	1.9	0.4				
	154	1	0.0	0.0	0.0	0.0	302	0.993	-39.0	13.8	1	1.9	0.4				
	155	1	0.0	0.0	0.0	0.0	302	0.993	-39.0	13.8	1	1.9	0.4				
	156	1	0.0	0.0	0.0	0.0	302	0.993	-39.0	13.8	1	1.9	0.4				
	158	1	0.0	0.0	0.0	0.0	302	0.993	-39.0	991.0	1	1.9	0.4				
	159	1	0.0	0.0	0.0	0.0	252	1.018	-19.0	13.8	1	1.9	0.4				
	160	1	0.0	0.0	0.0	0.0	252	1.018	-19.0	13.8	1	1.9	0.4				
	161	1	0.0	0.0	0.0	0.0	205	0.997	-19.0	230.0	1	1.05	0.95				
	162	1	0.0	0.0	0.0	0.0	207	0.977	-17.0	991.0	1	1.9	0.4				
	163	1	0.0	0.0	0.0	0.0	207	0.977	-17.0	13.8	1	1.9	0.4				
	164	1	0.0	0.0	0.0	0.0	352	1.012	-12.000000000000002	991.0	1	1.9	0.4				
	165	1	0.0	0.0	0.0	-25.0	352	0.98	-12.000000000000002	13.8	1	1.9	0.4				
	166	1	0.0	0.0	0.0	0.0	252	1.018	-19.0	991.0	1	1.9	0.4				
	167	1	0.0	0.0	0.0	0.0	252	1.018	-19.0	13.8	1	1.9	0.4				
	169	1	0.0	0.0	0.0	0.0	254	1.011	-20.0	138.0	1	1.05	0.95				
	170	1	0.0	0.0	0.0	0.0	359	1.02	-12.000000000000002	138.0	1	1.05	0.95				
	171	1	1.01	0.0	0.0	0.0	207	1.003	-18.0	138.0	1	1.05	0.95				
	172	1	0.0	0.0	0.0	0.0	256	0.998	-21.0	138.0	1	1.05	0.95				
	173	1	0.0	0.0	0.0	0.0	256	1.037	-20.0	138.0	1	1.05	0.95				
	174	1	0.0	0.0	0.0	150.0	258	1.002	-37.0	138.0	1	1.05	0.95				
	175	1	0.25	0.0	0.0	50.0	259	1.044	-31.0	138.0	1	1.05	0.95				
	176	1	0.0	0.0	0.0	0.0	202	1.006	-14.999999999999998	991.0	1	1.9	0.4				
	177	1	0.0	0.0	0.0	0.0	304	1.01	-39.0	138.0	1	1.05	0.95				
	178	1	0.0	0.0	0.0	0.0	254	1.001	-18.0	138.0	1	1.05	0.95				
	179	1	0.0	0.0	0.0	0.0	251	0.984	-18.0	991.0	1	1.9	0.4				
	180	1	0.0	0.0	0.0	100.0	254	1.003	-19.0	138.0	1	1.05	0.95				
	181	1	0.0	0.0	0.0	0.0	255	0.997	-16.0	138.0	1	1.05	0.95				
	182	1	0.0	0.0	0.0	0.0	255	1.004	-26.0	138.0	1	1.05	0.95				
	183	1	0.0	0.0	0.0	0.0	214	0.984	-12.000000000000002	138.0	1	1.05	0.95				
	184	1	0.0	0.0	0.0	0.0	254	1.007	-17.0	138.0	1	1.05	0.95				
	185	1	3.0	0.0	0.0	25.0	255	1.0	-6.4	138.0	1	1.05	0.95				
	186	1	0.0	0.0	0.0	0.0	202	1.006	-14.999999999999998	13.8	1	1.9	0.4				
	187	1	0.0	0.0	0.0	0.0	358	1.029	-0.24	138.0	1	1.05	0.95				
	189	1	0.0	0.0	0.0	0.0	563	1.003	2.93	991.0	1	1.9	0.4				
	190	1	0.0	0.0	0.0	0.0	208	0.997	9.91	138.0	1	1.05	0.95				
	192	1	0.0	0.0	0.0	0.0	252	1.001	-31.0	13.8	1	1.9	0.4				
	194	1	0.0	0.0	0.0	0.0	251	1.073	-18.0	13.8	1	1.9	0.4				
	195	1	0.0	0.0	0.0	0.0	251	1.076	-18.0	13.8	1	1.9	0.4				
	196	1	0.0	0.0	0.0	0.0	202	1.007	-16.0	13.8	1	1.9	0.4				
	197	1	0.0	0.0	0.0	0.0	251	1.052	-16.0	13.8	1	1.9	0.4				
	198	1	0.0	0.0	0.0	0.0	351	1.005	-12.000000000000002	13.8	1	1.9	0.4				
	199	1	0.0	0.0	0.0	0.0	302	0.993	-39.0	13.8	1	1.9	0.4				
	200	1	0.0	0.0	0.0	0.0	259	1.013	-34.0	991.0	1	1.9	0.4				
	201	2	1.16	0.0	0.0	0.0	259	1.012	-34.0	992.0	1	1.05	0.95				
	202	1	0.0	0.0	0.0	0.0	259	1.013	-34.0	991.0	1	1.9	0.4				
	203	2	1.16	0.0	0.0	0.0	259	1.012	-34.0	992.0	1	1.05	0.95				
	204	1	0.0	0.0	0.0	0.0	252	0.998	-20.0	13.8	1	1.9	0.4				
	205	1	0.0	0.0	0.0	50.0	252	1.04	-20.0	13.8	1	1.9	0.4				
	206	1	0.0	0.0	0.0	50.0	252	1.041	-20.0	13.8	1	1.9	0.4				
	208	1	0.0	0.0	0.0	0.0	563	1.003	2.93	13.8	1	1.9	0.4				
	209	1	0.0	0.0	0.0	0.0	252	0.998	-20.0	13.8	1	1.9	0.4				
	210	1	0.0	0.0	0.0	-136.0	351	1.06	14.1	500.0	1	1.1	1.0				
	211	1	0.0	0.0	0.0	0.0	252	1.001	-32.0	991.0	1	1.9	0.4				
	212	1	0.0	0.0	0.0	0.0	252	1.001	-32.0	13.8	1	1.9	0.4				
	213	1	0.0	0.0	0.0	0.0	352	1.018	9.76	345.0	1	1.05	0.95				
	214	1	0.0	0.0	0.0	0.0	351	1.017	9.48	991.0	1	1.9	0.4				
	216	1	0.0	0.0	0.0	0.0	352	1.007	8.74	345.0	1	1.05	0.95				
	217	1	0.0	0.0	0.0	0.0	352	1.011	13.8	345.0	1	1.05	0.95				
	218	1	0.0	0.0	0.0	0.0	512	0.991	10.1	345.0	1	1.05	0.95				
	219	1	0.0	0.0	0.0	0.0	562	1.007	9.84	345.0	1	1.05	0.95				
	220	1	0.0	0.0	0.0	0.0	512	1.015	14.500000000000002	345.0	1	1.05	0.95				
	221	1	0.0	0.0	0.0	0.0	564	1.003	3.21	34.5	1	1.05	0.95				
	222	1	0.0	0.0	0.0	0.0	562	1.01	7.959999999999999	991.0	1	1.9	0.4				
	223	1	0.0	0.0	0.0	0.0	512	0.974	8.68	991.0	1	1.9	0.4				
	224	1	0.0	0.0	0.0	0.0	512	0.973	8.56	991.0	1	1.9	0.4				
	225	1	0.0	0.0	0.0	0.0	353	1.008	14.800000000000002	230.0	1	1.05	0.95				
	226	1	0.0	0.0	0.0	0.0	513	1.001	8.88	230.0	1	1.05	0.95				
	227	1	0.0	0.0	0.0	0.0	563	1.009	8.06	230.0	1	1.05	0.95				
	228	1	0.0	0.0	0.0	0.0	563	1.009	8.31	230.0	1	1.05	0.95				
	229	1	0.0	0.0	0.0	0.0	513	1.008	3.56	230.0	1	1.05	0.95				
	230	1	0.0	0.0	0.0	0.0	513	1.015	17.3	230.0	1	1.05	0.95				
	231	1	0.0	0.0	0.0	-45.0	513	1.012	17.0	230.0	1	1.05	0.95				
	232	1	0.0	0.0	0.0	0.0	562	1.01	7.959999999999999	13.8	1	1.9	0.4				
	233	1	0.0	0.0	0.0	-136.0	561	1.038	12.2	500.0	1	1.1	1.0				
	234	1	0.0	0.0	0.0	0.0	562	1.008	10.600000000000001	345.0	1	1.05	0.95				
	235	1	0.0	0.0	0.0	-209.50000000000003	511	1.038	16.3	500.0	1	1.1	1.0				
	236	1	0.8100000000000002	0.0	0.0	0.0	564	1.001	5.84	138.0	1	1.05	0.95				
	237	1	0.0	0.0	0.0	0.0	564	1.002	8.05	138.0	1	1.05	0.95				
	238	1	0.13	0.0	0.0	0.0	517	1.029	15.9	138.0	1	1.05	0.95				
...
];

%% generator data
%    bus    Pg    Qg    Qmax    Qmin    Vg    mBase    status    Pmax    Pmin    Pc1    Pc2    Qc1min    Qc1max    Qc2min    Qc2max    ramp_agc    ramp_10    ramp_30    ramp_q    apf
mpc.gen = [
	5031	0.0	0.0	0.0	0.0	0.975	100.0	1	99999.0	0.0															
	9682	120.0	-20.5	90.0	-33.8	0.95	100.0	1	120.0	0.0															
	1863	20.0	-8.6	8.6	-8.6	0.998	100.0	1	20.0	0.0															
	2631	5.4	0.0	0.0	0.0	0.991	100.0	0	99999.0	0.0															
	7064	1728.0	490.00000000000006	799.2	-799.0	1.05	100.0	1	1729.0	0.0															
	3153	21.5	0.7	0.0	0.0	1.011	100.0	0	99999.0	0.0															
	17	0.0	0.0	0.0	0.0	1.009	100.0	1	99999.0	0.0															
	6057	21.3	-14.800000000000002	37.2	-37.2	0.99	100.0	1	21.3	0.0															
	4335	2.9	0.0	0.0	0.0	1.002	100.0	0	99999.0	0.0															
	5805	17.4	-8.19	14.400000000000002	-14.400000000000002	0.986	100.0	1	17.4	0.0															
	6423	0.0	0.0	0.0	0.0	0.978	100.0	1	99999.0	0.0															
	14	30.0	20.19	50.0	-50.0	1.026	100.0	1	222.00000000000003	0.0															
	4141	30.0	0.0	0.0	0.0	1.017	100.0	0	99999.0	0.0															
	510	1463.0	185.4	630.0	-630.0	0.974	100.0	1	770.0	0.0															
	2166	26.899999999999995	0.0	0.0	0.0	0.983	100.0	0	99999.0	0.0															
	3963	136.0	-35.1	180.0	-110.00000000000001	1.004	100.0	1	291.0	0.0															
	21	86.0	-7.000000000000001	42.0	-40.0	0.975	100.0	1	108.0	0.0															
	871	4.0	0.0	0.0	0.0	0.995	100.0	0	99999.0	0.0															
	6016	7.8	-1.38	7.6	-7.6	0.989	100.0	1	7.8	0.0															
	6598	5.9	0.0	0.0	0.0	0.992	100.0	0	99999.0	0.0															
	2276	4.9	0.0	0.0	0.0	0.967	100.0	0	99999.0	0.0															
	8746	9.1	-1.71	9.0	-9.0	0.982	100.0	1	9.1	0.0															
	751	60.0	-13.3	50.0	-50.0	0.968	100.0	1	108.0	0.0															
	1070	150.0	55.77000000000001	70.0	-70.0	1.01	100.0	1	427.59999999999997	0.0															
	3749	21.0	0.0	0.0	0.0	0.981	100.0	0	99999.0	0.0															
	8129	5.9	-4.44	14.3	-12.5	0.994	100.0	1	5.9	0.0															
	7199	12.6	-3.62	26.8	-26.8	0.987	100.0	1	12.6	0.0															
	1166	0.0	0.0	0.0	0.0	0.99	100.0	1	129.0	0.0															
	2863	23.0	6.01	44.0	-44.0	1.01	100.0	1	190.0	0.0															
	6343	18.3	0.0	0.0	0.0	0.989	100.0	0	99999.0	0.0															
	9126	30.0	0.0	0.0	0.0	1.022	100.0	1	99999.0	0.0															
	5051	440.00000000000006	-160.0	208.3	-160.0	0.988	100.0	1	459.99999999999994	0.0															
	6164	34.5	-11.6	49.2	-49.2	0.984	100.0	1	34.5	0.0															
	3744	18.0	-9.74	10.32	-10.3	0.963	100.0	1	32.01	0.0															
	6129	13.8	-6.67	19.6	-19.6	0.991	100.0	1	13.8	0.0															
	1704	5.9	0.0	0.0	0.0	1.008	100.0	0	99999.0	0.0															
	9598	6.0	0.0	0.0	0.0	1.018	100.0	0	99999.0	0.0															
	6133	26.899999999999995	0.0	0.0	0.0	0.977	100.0	0	99999.0	0.0															
	10232	4.0	0.0	0.0	0.0	1.027	100.0	0	99999.0	0.0															
	1023	0.3	0.0	0.0	0.0	0.997	100.0	0	99999.0	0.0															
	3969	80.0	0.0	0.0	0.0	1.013	100.0	0	99999.0	0.0															
	7916	14.499999999999998	-9.12	8.8	-15.299999999999999	0.978	100.0	1	14.499999999999998	0.0															
	1566	11.3	0.0	0.0	0.0	1.013	100.0	0	99999.0	0.0															
	315	0.0	-11.2	30.0	-15.0	1.001	100.0	1	99999.0	0.0															
	841	0.4	0.0	0.0	0.0	0.995	100.0	0	99999.0	0.0															
	4802	12.1	-6.38	9.396	-6.38	1.01	100.0	1	12.1	0.0															
	984	6.0	0.0159	4.0	-5.0	1.009	100.0	1	11.4	0.0															
	9451	0.0	0.0	0.0	0.0	0.992	100.0	1	99999.0	0.0															
	9769	45.0	-3.3099999999999996	55.8	-55.8	0.972	100.0	1	99999.0	0.0															
	3104	15.299999999999999	0.0	0.0	0.0	0.984	100.0	0	99999.0	0.0															
	7246	49.2	-5.9	0.0	0.0	0.978	100.0	0	99999.0	0.0															
	1176	0.0	0.0	0.0	0.0	0.99	100.0	1	62.5	0.0															
	8727	42.8	-15.4	48.0	-48.0	0.989	100.0	1	42.8	0.0															
	8911	0.0	0.0	0.0	0.0	0.995	100.0	1	99999.0	0.0															
	6589	45.9	0.0	0.0	0.0	1.013	100.0	0	99999.0	0.0															
	10144	31.0	1.722	28.499999999999996	-28.499999999999996	1.01	100.0	1	99999.0	0.0															
	2733	6.6000000000000005	0.0	0.0	0.0	1.023	100.0	0	99999.0	0.0															
	9067	0.6	0.0	0.0	0.0	0.99	100.0	0	99999.0	0.0															
	9734	7.5	-4.8	0.0	0.0	1.017	100.0	0	99999.0	0.0															
	2918	9.5	0.0	0.0	0.0	0.999	100.0	1	99999.0	0.0															
	4168	50.0	0.0	0.0	0.0	1.006	100.0	0	99999.0	0.0															
	2917	4.5	0.0	0.0	0.0	1.033	100.0	1	99999.0	0.0															
	4010	0.7	0.0	0.0	0.0	0.989	100.0	0	99999.0	0.0															
	44322	0.0	0.0	0.0	0.0	0.952	100.0	1	99999.0	0.0															
	1774	1.7000000000000002	0.0	0.0	0.0	0.987	100.0	0	99999.0	0.0															
	6073	60.5	-3.38	149.1	-122.0	0.979	100.0	1	60.5	0.0															
	1189	0.5	0.0	0.0	0.0	1.024	100.0	0	99999.0	0.0															
	7206	783.7	-247.00000000000003	285.0	-285.0	0.977	100.0	1	900.0	0.0															
	9768	50.0	-0.097	61.5	-61.5	1.004	100.0	1	99999.0	0.0															
	6742	13.8	-6.94	19.6	-19.6	0.992	100.0	1	13.8	0.0															
	44323	0.0	0.0	0.0	0.0	0.952	100.0	1	99999.0	0.0															
	1501	50.0	21.96	44.0	-44.0	1.002	100.0	1	88.0	0.0															
	4834	29.299999999999997	0.0	0.0	0.0	0.987	100.0	1	99999.0	0.0															
	1594	20.0	22.5	37.2	-40.0	0.998	100.0	1	117.8	0.0															
	2601	13.100000000000001	7.6	7.6	-7.6	0.989	100.0	1	15.8	0.0															
	4061	22.0	0.0	0.0	0.0	0.997	100.0	0	99999.0	0.0															
	6074	29.2	5.678	17.5	-25.1	0.997	100.0	1	29.2	0.0															
	4157	28.6	0.0	0.0	0.0	1.016	100.0	0	99999.0	0.0															
	7509	4.3	-0.25	3.1	-2.1	1.017	100.0	1	4.3	0.0															
	922	0.0	0.0	0.0	0.0	1.01	100.0	1	99999.0	0.0															
	8607	18.3	-10.2	25.900000000000002	-25.900000000000002	0.973	100.0	1	18.3	0.0															
	9784	22.0	-9.2	13.5	-9.2	0.983	100.0	1	22.0	0.0															
	8015	6.2	-4.11	13.100000000000001	-13.100000000000001	0.99	100.0	1	6.2	0.0															
	10119	30.0	-48.0	48.0	-48.0	0.95	100.0	1	30.0	0.0															
	8724	40.1	-40.9	45.6	-45.6	0.96	100.0	1	40.1	0.0															
	8071	26.1	-6.08	37.0	-37.0	0.989	100.0	1	26.1	0.0															
	3525	0.0	0.0	0.0	0.0	0.995	100.0	1	99999.0	0.0															
	8612	30.0	16.15	26.700000000000003	-19.3	1.001	100.0	1	32.82	0.0															
	6027	0.0	0.0	0.0	0.0	0.992	100.0	1	99999.0	0.0															
	3803	12.0	0.0	0.0	0.0	1.007	100.0	0	99999.0	0.0															
	5744	20.7	-4.7	22.1	-22.1	0.981	100.0	1	20.7	0.0															
	3465	13.200000000000001	0.0	0.0	0.0	0.985	100.0	0	99999.0	0.0															
	9582	130.0	3.688	97.5	-86.1	0.95	100.0	1	99999.0	0.0															
	4525	38.0	-4.6	23.8	-37.0	0.969	100.0	1	47.6	0.0															
	6711	12.6	-11.8	26.5	-26.5	0.985	100.0	1	12.6	0.0															
	6372	39.6	0.0	0.0	-26.5	0.98	100.0	1	39.6	0.0															
	4073	1.4	0.0	0.0	0.0	1.009	100.0	0	99999.0	0.0															
	9328	3.1	0.0	0.0	0.0	1.0	100.0	0	99999.0	0.0															
	3524	0.0	0.0	0.0	0.0	0.995	100.0	1	99999.0	0.0															
	8950	55.50000000000001	-8.27	15.5	-15.5	1.031	100.0	1	55.50000000000001	0.0															
	8686	10.6	-3.42	15.2	-15.2	0.993	100.0	1	10.6	0.0															
	1014	0.1	0.0	0.0	0.0	0.97	100.0	0	99999.0	0.0															
	4692	1.6	0.0	0.0	0.0	1.017	100.0	1	99999.0	0.0															
	4520	53.0	-19.3	20.0	-19.3	0.965	100.0	1	58.70000000000001	0.0															
	5078	24.1	-11.5	34.5	-34.5	0.994	100.0	1	24.1	0.0															
	9625	31.3	0.0	0.0	0.0	1.002	100.0	0	99999.0	0.0															
	1528	16.0	0.0	0.0	0.0	0.999	100.0	0	99999.0	0.0															
	2107	4.3	0.0	0.0	0.0	1.011	100.0	0	99999.0	0.0															
	6347	0.0	0.1619	30.0	-15.0	0.983	100.0	1	99999.0	0.0															
	8651	14.800000000000002	-17.8	23.2	-21.9	0.989	100.0	1	14.800000000000002	0.0															
	2716	7.5	0.0	0.0	0.0	1.023	100.0	0	99999.0	0.0															
	2851	1.7000000000000002	0.0	0.0	0.0	0.993	100.0	0	99999.0	0.0															
	4631	20.6	0.0	0.0	0.0	1.034	100.0	1	99999.0	0.0															
	526	20.0	-19.2	52.0	-52.0	0.977	100.0	1	86.0	0.0															
	3839	36.0	0.0	0.0	0.0	1.019	100.0	0	99999.0	0.0															
	5218	0.0	0.0	0.0	0.0	0.966	100.0	1	99999.0	0.0															
	4255	6.800000000000001	0.0	0.0	0.0	0.972	100.0	0	99999.0	0.0															
	1707	0.1	0.0	0.0	0.0	0.992	100.0	0	99999.0	0.0															
	516	6.5	14.000000000000002	14.000000000000002	-14.000000000000002	1.023	100.0	1	140.8	0.0															
	6597	7.1	0.0	0.0	0.0	0.995	100.0	0	99999.0	0.0															
	9558	1.4	0.1	0.0	0.0	1.0	100.0	0	99999.0	0.0															
	9455	50.0	0.0	0.0	0.0	1.016	100.0	1	99999.0	0.0															
	9732	7.5	-4.8	0.0	0.0	1.018	100.0	0	99999.0	0.0															
	5653	20.4	0.0	0.0	0.0	0.99	100.0	0	99999.0	0.0															
	3455	0.8	0.1	0.0	0.0	1.016	100.0	0	99999.0	0.0															
	3547	19.2	0.0	0.0	0.0	1.032	100.0	1	99999.0	0.0															
	5032	0.0	0.0	0.0	0.0	0.976	100.0	1	99999.0	0.0															
	10157	15.0	-4.76	9.0	-9.0	0.987	100.0	1	15.0	0.0															
	4827	8.8	0.0	0.0	0.0	1.015	100.0	0	99999.0	0.0															
	4489	553.0	-46.4	338.8	-272.0	0.98	100.0	1	700.0	0.0															
	32	0.0	0.0	0.0	0.0	1.006	100.0	1	99999.0	0.0															
	8309	13.8	-5.32	19.9	-19.9	0.988	100.0	1	13.8	0.0															
	8485	7.5	-2.78	11.9	-11.9	0.995	100.0	1	7.5	0.0															
	340	0.5	0.0	0.0	0.0	1.01	100.0	0	99999.0	0.0															
	6618	10.7	-10.2	10.4	-10.4	0.994	100.0	1	10.7	0.0															
	7340	0.7	0.0	0.0	0.0	0.997	100.0	0	99999.0	0.0															
	2335	3.0	0.0	0.0	0.0	1.0	100.0	0	99999.0	0.0															
	3783	11.2	0.0	0.0	0.0	1.004	100.0	0	99999.0	0.0															
	836	14.2	0.0	0.0	0.0	0.998	100.0	0	99999.0	0.0															
	4878	2.7	0.0	0.0	0.0	1.015	100.0	0	99999.0	0.0															
	9923	2.9	0.0	0.0	0.0	0.979	100.0	0	99999.0	0.0															
	6593	20.0	0.0	0.0	0.0	0.996	100.0	0	99999.0	0.0															
	37	0.0	0.0	0.0	0.0	0.958	100.0	1	99999.0	0.0															
	4403	8.6	0.0	0.0	0.0	1.027	100.0	1	99999.0	0.0															
	2031	22.0	2.07	14.400000000000002	-15.6	1.026	100.0	1	29.600000000000005	0.0															
	3785	20.0	0.0	0.0	0.0	1.007	100.0	0	99999.0	0.0															
	2449	36.5	0.0	0.0	0.0	1.003	100.0	0	99999.0	0.0															
	7072	21.0	0.0	0.0	0.0	1.051	100.0	0	99999.0	0.0															
	10012	36.0	-6.6000000000000005	0.0	0.0	1.009	100.0	0	99999.0	0.0															
	5012	0.0	0.0	0.0	0.0	1.021	100.0	1	99999.0	0.0															
	2254	2.2	0.0	0.0	0.0	0.969	100.0	0	99999.0	0.0															
	4190	55.00000000000001	0.0	0.0	0.0	1.037	100.0	0	99999.0	0.0															
	10314	6.800000000000001	0.0	0.0	0.0	1.001	100.0	0	99999.0	0.0															
	4911	6.5	0.0	0.0	0.0	1.02	100.0	1	99999.0	0.0															
	513	498.00000000000006	3.465	240.0	-240.0	0.968	100.0	1	315.0	0.0															
	1851	1.2	0.0	0.0	0.0	1.0	100.0	0	99999.0	0.0															
	2818	10.9	0.0	0.0	0.0	1.028	100.0	0	99999.0	0.0															
	2622	2.4	0.0	0.0	0.0	1.002	100.0	0	99999.0	0.0															
	9100	66.0	6.726	120.0	-120.0	0.973	100.0	1	160.0	0.0															
	4788	3.2	-1.11	2.42	-1.6	1.0	100.0	1	3.2	0.0															
	806	35.0	0.1203	28.999999999999996	-28.999999999999996	0.977	100.0	1	61.0	0.0															
	2977	12.6	0.0	0.0	0.0	1.001	100.0	0	99999.0	0.0															
	4698	3.0	0.0	0.0	0.0	0.988	100.0	1	99999.0	0.0															
	1155	75.0	-17.6	61.0	-60.0	0.99	100.0	1	250.0	0.0															
	44075	0.0	-36.7	100.0	-70.0	0.96	100.0	1	99999.0	0.0															
	3563	0.0	0.0	0.0	0.0	1.024	100.0	1	99999.0	0.0															
	9948	2.5	-2.0	0.0	0.0	1.035	100.0	0	99999.0	0.0															
	8229	11.9	-2.96	12.8	-12.8	0.991	100.0	1	11.9	0.0															
	921	129.0	21.01	62.0	-45.0	1.01	100.0	1	355.0	0.0															
	6812	8.5	0.1	0.0	0.0	1.037	100.0	0	99999.0	0.0															
	2350	18.0	0.0	0.0	0.0	0.968	100.0	0	99999.0	0.0															
	5771	0.0	0.0	0.0	0.0	0.96	100.0	1	99999.0	0.0															
	304	156.0	4.821	45.0	-45.0	0.997	100.0	1	195.0	0.0															
	6688	6.2	-1.39	9.0	-9.0	0.996	100.0	1	6.2	0.0															
	6422	1134.0	-7.049999999999999	420.0	-420.0	0.973	100.0	1	1400.0	0.0															
	6550	18.5	-17.6	17.9	-17.9	0.967	100.0	1	18.5	0.0															
	809	0.0	0.0	0.0	0.0	1.0	100.0	1	99999.0	0.0															
	8904	61.1	23.7	96.0	-60.0	0.983	100.0	1	108.0	0.0															
	1125	9.5	0.0	0.0	0.0	1.014	100.0	0	99999.0	0.0															
	2803	2.1	0.0	0.0	0.0	1.025	100.0	0	99999.0	0.0															
	1284	1.8000000000000003	0.0	0.0	0.0	0.999	100.0	0	99999.0	0.0															
	505	89.0	-35.9	72.0	-72.0	0.95	100.0	1	177.0	0.0															
	4222	23.8	0.0	0.0	0.0	1.004	100.0	0	99999.0	0.0															
	5463	7.3	0.0	0.0	0.0	1.009	100.0	0	99999.0	0.0															
	8442	23.1	-10.1	47.8	-35.8	0.981	100.0	1	23.1	0.0															
	4691	1.0	0.0	0.0	0.0	1.017	100.0	1	99999.0	0.0															
	8080	13.0	-3.19	18.5	-18.5	0.991	100.0	1	13.0	0.0															
	4513	2.3	0.0	0.0	0.0	0.937	100.0	0	99999.0	0.0															
	6424	1200.0	-95.7	472.0	-472.0	0.969	100.0	1	1560.0	0.0															
	4710	0.7	0.0	0.0	0.0	1.015	100.0	0	99999.0	0.0															
	5957	80.0	-76.6	76.6	-76.6	0.979	100.0	1	80.0	0.0															
	6042	6.2	-3.9	12.1	-15.4	0.993	100.0	1	6.2	0.0															
	5764	0.0	0.0	0.0	0.0	0.954	100.0	1	99999.0	0.0															
	7619	14.2	0.0	0.0	0.0	1.022	100.0	0	99999.0	0.0															
	6136	2.7	-1.28	5.8	-5.8	0.993	100.0	1	2.7	0.0															
	2754	12.9	0.0	0.0	0.0	1.0	100.0	0	99999.0	0.0															
	1750	1.0	0.0	0.0	0.0	1.008	100.0	0	99999.0	0.0															
	503	210.0	-29.9	96.0	-96.0	0.95	100.0	1	221.59999999999997	0.0															
	2870	17.3	0.0	0.0	0.0	1.016	100.0	0	99999.0	0.0															
	3154	35.8	-2.7	0.0	0.0	0.987	100.0	0	99999.0	0.0															
...
];

%% branch data
%    f_bus    t_bus    r    x    b    rateA    rateB    rateC    ratio    angle    status    angmin    angmax
mpc.branch = [
	3162	3163	0.0048	0.0127	0.0032400000000000003	80.0	108.0	80.0	0	0	1	-59.99999999999999	59.99999999999999								
	9363	9364	0.00376	0.027719999999999998	0.00055	132.0	132.0	132.0	0	0	1	-59.99999999999999	59.99999999999999								
	5887	5886	0.0	0.1628	0.0	0.0	0.0	0.0	0	0	1	-59.99999999999999	59.99999999999999								
	283	1656	0.000378	0.002154	0.00061	194.0	247.00000000000003	194.0	0	0	1	-59.99999999999999	59.99999999999999								
	9064	7377	0.043678	0.11242	0.013816	125.0	160.0	125.0	0	0	1	-59.99999999999999	59.99999999999999								
	6745	6747	0.002193	0.027515	0.033645999999999995	0.0	0.0	0.0	0	0	1	-59.99999999999999	59.99999999999999								
	1035	2826	0.0045000000000000005	0.0121	0.0029	86.0	86.0	86.0	0	0	1	-59.99999999999999	59.99999999999999								
	4835	4839	0.0197	0.0482	0.0123	80.0	100.0	70.0	0	0	1	-59.99999999999999	59.99999999999999								
	5790	7947	0.0026	0.0125	0.0033	150.0	206.0	206.0	0	0	1	-59.99999999999999	59.99999999999999								
	775	3777	0.0016200000000000001	0.004699999999999999	0.00126	103.0	120.0	103.0	0	0	1	-59.99999999999999	59.99999999999999								
	589	413	0.000724	0.008914	0.5768	1524.0	1524.0	1524.0	0	0	1	-59.99999999999999	59.99999999999999								
	104	3010	0.00189	0.03162	2.297300000000001	2442.0	3464.0	3464.0	0	0	1	-59.99999999999999	59.99999999999999								
	1857	1858	0.0808	0.1674	0.040490000000000005	73.0	94.0	94.0	0	0	1	-59.99999999999999	59.99999999999999								
	7504	7511	1.0e-5	1.0e-5	1.0e-6	61.0	61.0	61.0	0	0	1	-59.99999999999999	59.99999999999999								
	673	11630	0.042817999999999995	0.10052	0.026699999999999998	139.0	163.0	139.0	0	0	1	-59.99999999999999	59.99999999999999								
	4295	3111	0.030950000000000002	0.09612	0.02722	125.0	179.0	125.0	0	0	1	-59.99999999999999	59.99999999999999								
	9710	10333	0.0002	0.001	0.00041099999999999996	225.99999999999997	225.99999999999997	225.99999999999997	0	0	1	-59.99999999999999	59.99999999999999								
	2306	2313	0.029300000000000003	0.0774	0.0181	144.0	168.0	103.0	0	0	1	-59.99999999999999	59.99999999999999								
	184	180	0.0158	0.09140000000000001	0.0263	194.0	206.99999999999997	206.99999999999997	0	0	1	-59.99999999999999	59.99999999999999								
	4223	4224	0.00594	0.0151	0.00379	103.0	129.0	103.0	0	0	1	-59.99999999999999	59.99999999999999								
	4239	11654	0.014026	0.065082	0.019	114.99999999999999	114.99999999999999	114.99999999999999	0	0	1	-59.99999999999999	59.99999999999999								
	184	9640	0.00536	0.0161	0.00406	97.0	135.0	97.0	0	0	1	-59.99999999999999	59.99999999999999								
	410	421	0.0028510000000000002	0.015085	0.0493	573.0	598.0	598.0	0	0	1	-59.99999999999999	59.99999999999999								
	8523	8526	0.020731000000000003	0.067799	0.001208	69.0	86.0	86.0	0	0	1	-59.99999999999999	59.99999999999999								
	283	178	0.0028000000000000004	0.0158	0.0045000000000000005	194.0	247.00000000000003	194.0	0	0	1	-59.99999999999999	59.99999999999999								
	3176	21913	0.0	0.0001	0.0	0.0	0.0	0.0	0	0	0	-59.99999999999999	59.99999999999999								
	1558	4087	0.0048	0.012199999999999999	0.0031	125.0	145.0	125.0	0	0	1	-59.99999999999999	59.99999999999999								
	2383	2390	0.021099999999999997	0.0616	0.016615	101.0	142.0	142.0	0	0	1	-59.99999999999999	59.99999999999999								
	11395	1395	0.0011	0.0028100000000000004	0.0007099999999999999	122.0	130.0	122.0	0	0	0	-59.99999999999999	59.99999999999999								
	9873	9874	0.00187	0.01993	0.0111	418.0	544.0	544.0	0	0	1	-59.99999999999999	59.99999999999999								
	4325	3226	0.0030299999999999997	0.012310000000000001	0.0033	153.0	194.0	153.0	0	0	1	-59.99999999999999	59.99999999999999								
	4713	4712	0.00252	0.01315	0.00813	245.00000000000003	306.0	245.00000000000003	0	0	1	-59.99999999999999	59.99999999999999								
	624	747	0.09331400000000001	0.2462	0.0633	80.0	108.0	80.0	0	0	1	-59.99999999999999	59.99999999999999								
	4611	4612	0.0007199999999999999	0.0027600000000000003	0.0007000000000000001	80.0	96.0	28.999999999999996	0	0	0	-59.99999999999999	59.99999999999999								
	5590	43954	1.0e-5	1.0e-5	-1.49	1689.0	1689.0	1689.0	0	0	1	-59.99999999999999	59.99999999999999								
	1106	61	5.0e-5	0.00106	0.10871	2728.0	2728.0	2728.0	0	0	1	-59.99999999999999	59.99999999999999								
	5181	5738	0.00605	0.030019999999999998	0.0593	250.0	316.0	316.0	0	0	1	-59.99999999999999	59.99999999999999								
	781	3772	0.0298	0.0866	0.02319	103.0	120.0	103.0	0	0	1	-59.99999999999999	59.99999999999999								
	1683	1679	0.0014149999999999998	0.002323	0.06858399999999999	125.0	134.0	125.0	0	0	1	-59.99999999999999	59.99999999999999								
	2639	2640	0.0276	0.0588	0.01345	47.0	47.0	47.0	0	0	1	-59.99999999999999	59.99999999999999								
	681	3158	0.0	0.001	0.0	72.0	86.0	72.0	0	0	1	-59.99999999999999	59.99999999999999								
	2115	2135	0.0027	0.009300000000000001	0.0026	125.0	143.0	128.0	0	0	1	-59.99999999999999	59.99999999999999								
	798	3731	0.0103	0.0297	0.0079	103.0	120.0	210.0	0	0	1	-59.99999999999999	59.99999999999999								
	11919	3175	0.0014000000000000002	0.0037	0.001	0.0	0.0	0.0	0	0	1	-59.99999999999999	59.99999999999999								
	1243	1218	0.024399999999999998	0.134	0.24658999999999998	225.0	319.0	319.0	0	0	1	-59.99999999999999	59.99999999999999								
	826	833	0.0738	0.16940000000000002	0.041525999999999993	106.0	125.0	125.0	0	0	1	-59.99999999999999	59.99999999999999								
	11628	622	0.003051	0.012885	0.0038	191.0	229.0	191.0	0	0	1	-59.99999999999999	59.99999999999999								
	4563	4495	0.00245	0.03948	1.4783000000000008	2558.0	2595.0	3270.0000000000005	0	0	1	-59.99999999999999	59.99999999999999								
	11955	11926	0.014190000000000001	0.051043000000000005	0.014199999999999999	97.0	133.0	97.0	0	0	1	-59.99999999999999	59.99999999999999								
	11711	3054	0.0001	0.0003	0.0001	127.0	127.0	0.0	0	0	1	-59.99999999999999	59.99999999999999								
	11707	2550	0.0009	0.0022	0.00065	80.0	80.0	80.0	0	0	1	-59.99999999999999	59.99999999999999								
	3126	742	0.0105	0.0278	0.0012	51.0	61.0	51.0	0	0	1	-59.99999999999999	59.99999999999999								
	5461	5351	0.0030359999999999996	0.015255000000000001	0.0288	299.0	299.0	299.0	0	0	1	-59.99999999999999	59.99999999999999								
	9697	819	0.0034000000000000002	0.0166	0.02981	158.0	210.0	210.0	0	0	1	-59.99999999999999	59.99999999999999								
	7243	7244	0.0842	0.1577	0.051100000000000007	113.99999999999999	143.0	143.0	0	0	1	-59.99999999999999	59.99999999999999								
	8537	8587	0.0067	0.040999999999999995	0.0008	104.0	104.0	104.0	0	0	1	-59.99999999999999	59.99999999999999								
	965	1198	0.0126	0.059000000000000004	0.10260999999999999	350.0	350.0	350.0	0	0	1	-59.99999999999999	59.99999999999999								
	5678	8356	1.0e-5	1.0e-5	0.0	0.0	0.0	0.0	0	0	1	-59.99999999999999	59.99999999999999								
	1415	1638	0.004324	0.017566	0.004709	153.0	194.0	153.0	0	0	1	-59.99999999999999	59.99999999999999								
	1028	868	0.01804	0.0909	0.16196000000000002	238.0	298.0	298.0	0	0	1	-59.99999999999999	59.99999999999999								
	1040	970	0.0014000000000000002	0.014499999999999999	0.5215000000000002	0.0	0.0	0.0	0	0	1	-59.99999999999999	59.99999999999999								
	3266	3283	0.0012180000000000001	0.002531	0.000611	96.0	120.0	96.0	0	0	1	-59.99999999999999	59.99999999999999								
	564	22004	0.067762	0.17135	0.0441	108.0	130.0	108.0	0	0	1	-59.99999999999999	59.99999999999999								
	21392	7470	0.0027	0.006889999999999999	0.0017430000000000002	122.0	130.0	122.0	0	0	1	-59.99999999999999	59.99999999999999								
	7505	7506	0.08426	0.12154	0.001827	42.0	42.0	42.0	0	0	1	-59.99999999999999	59.99999999999999								
	11951	3936	0.0	0.0001	0.0	0.0	0.0	0.0	0	0	1	-59.99999999999999	59.99999999999999								
	3255	3247	0.00094	0.006939999999999999	0.0021	239.0	301.0	239.0	0	0	1	-59.99999999999999	59.99999999999999								
	6770	5371	0.01456	0.06987	0.12793	0.0	0.0	0.0	0	0	1	-59.99999999999999	59.99999999999999								
	1283	1046	0.00898	0.049100000000000005	0.08553000000000001	329.0	385.0	385.0	0	0	1	-59.99999999999999	59.99999999999999								
	5453	5473	0.0132	0.0481	0.0010299999999999999	79.0	90.0	90.0	0	0	0	-59.99999999999999	59.99999999999999								
	3823	21997	0.003951	0.010198	0.002533	95.0	139.0	95.0	0	0	1	-59.99999999999999	59.99999999999999								
	1203	1304	0.0001	0.001	0.0001	45.0	55.00000000000001	55.00000000000001	0	0	1	-59.99999999999999	59.99999999999999								
	6461	8060	0.0003	0.0015	0.0	0.0	0.0	0.0	0	0	1	-59.99999999999999	59.99999999999999								
	9002	7357	0.0060999999999999995	0.014499999999999999	0.0036	125.0	125.0	125.0	0	0	1	-59.99999999999999	59.99999999999999								
	699	22469	0.006372	0.016462	0.0044	80.0	108.0	80.0	0	0	1	-59.99999999999999	59.99999999999999								
	2255	2282	0.0152	0.0536	0.0143	86.0	95.0	103.0	0	0	1	-59.99999999999999	59.99999999999999								
	431	426	0.000749	0.0043619999999999996	0.014199999999999999	324.0	445.0	445.0	0	0	1	-59.99999999999999	59.99999999999999								
	11918	670	0.026415	0.06842100000000001	0.0183	80.0	108.0	108.0	0	0	1	-59.99999999999999	59.99999999999999								
	1455	1456	0.002432	0.013855	0.0039369999999999995	194.0	247.00000000000003	194.0	0	0	1	-59.99999999999999	59.99999999999999								
	1140	1121	0.00599	0.01565	0.003785	97.0	124.0	124.0	0	0	1	-59.99999999999999	59.99999999999999								
	12008	554	0.0025269999999999997	0.011725000000000001	0.0006	73.0	101.0	73.0	0	0	1	-59.99999999999999	59.99999999999999								
	4050	349	0.00122	0.01816	1.4905000000000002	2442.0	2598.0	2598.0	0	0	1	-59.99999999999999	59.99999999999999								
	887	894	0.008	0.028300000000000002	0.010896	129.0	129.0	129.0	0	0	1	-59.99999999999999	59.99999999999999								
	3592	23584	0.03571	0.07083	0.0011740000000000001	52.0	52.0	52.0	0	0	1	-59.99999999999999	59.99999999999999								
	1404	1653	5.6e-5	0.000138	0.006217	167.0	191.0	167.0	0	0	1	-59.99999999999999	59.99999999999999								
	392	7179	0.0096	0.024700000000000003	0.0031	150.0	160.0	150.0	0	0	1	-59.99999999999999	59.99999999999999								
	848	2452	0.0202	0.058499999999999996	0.015931999999999998	100.0	141.0	141.0	0	0	1	-59.99999999999999	59.99999999999999								
	7548	4633	0.005699999999999999	0.0146	0.0035099999999999997	86.0	100.0	80.0	0	0	1	-59.99999999999999	59.99999999999999								
	1623	3552	0.0004	0.0016200000000000001	0.00043999999999999996	153.0	194.0	153.0	0	0	1	-59.99999999999999	59.99999999999999								
	9263	1263	0.00151	0.00832	0.015700000000000002	340.0	398.0	398.0	0	0	1	-59.99999999999999	59.99999999999999								
	581	9102	0.000661	0.008187999999999999	0.4961	1524.0	1524.0	1524.0	0	0	1	-59.99999999999999	59.99999999999999								
	6142	8643	0.0046500000000000005	0.02365	0.0070599999999999994	218.00000000000003	283.0	283.0	0	0	1	-59.99999999999999	59.99999999999999								
	2160	2166	0.0113	0.030299999999999997	0.0070999999999999995	103.0	129.0	103.0	0	0	1	-59.99999999999999	59.99999999999999								
	4201	4200	0.0012	0.0151	0.0213	956.0	956.0	956.0	0	0	1	-59.99999999999999	59.99999999999999								
	692	11978	0.003475	0.015789	0.0045000000000000005	131.0	145.0	131.0	0	0	1	-59.99999999999999	59.99999999999999								
	1292	1305	0.13970000000000002	0.44179999999999997	0.00796	85.0	85.0	85.0	0	0	1	-59.99999999999999	59.99999999999999								
	8516	8515	0.001	0.00772	0.0046500000000000005	335.0	420.0	420.0	0	0	1	-59.99999999999999	59.99999999999999								
	7427	7428	0.031200000000000002	0.0803	0.009899999999999999	125.0	150.0	125.0	0	0	1	-59.99999999999999	59.99999999999999								
	14186	701	0.0020280000000000003	0.00524	0.0014000000000000002	80.0	108.0	80.0	0	0	1	-59.99999999999999	59.99999999999999								
	2363	9400	0.011200000000000002	0.0546	0.0013239999999999999	124.0	124.0	124.0	0	0	1	-59.99999999999999	59.99999999999999								
	321	1509	0.0783	0.20041	0.05044	125.0	125.0	125.0	0	0	1	-59.99999999999999	59.99999999999999								
	2690	2689	0.1632	0.43079999999999996	0.00757	66.0	66.0	66.0	0	0	1	-59.99999999999999	59.99999999999999								
	6930	6862	0.006690000000000001	0.047869999999999996	-0.059709999999999985	476.99999999999994	476.99999999999994	476.99999999999994	0	0	1	-59.99999999999999	59.99999999999999								
	6313	6314	0.037200000000000004	0.0901	0.00157	100.0	100.0	100.0	0	0	1	-59.99999999999999	59.99999999999999								
	309	1522	0.0287	0.0754	0.01787	125.0	141.0	125.0	0	0	1	-59.99999999999999	59.99999999999999								
	1093	1140	0.09369999999999999	0.24100000000000002	0.0616	119.0	124.0	124.0	0	0	0	-59.99999999999999	59.99999999999999								
	24235	3055	0.0001	0.0003	0.0001	127.0	127.0	0.0	0	0	0	-59.99999999999999	59.99999999999999								
	4007	4008	0.024	0.0565	0.01387	125.0	160.0	125.0	0	0	1	-59.99999999999999	59.99999999999999								
	2998	792	0.0048	0.0138	0.0038	103.0	120.0	103.0	0	0	1	-59.99999999999999	59.99999999999999								
	999	41416	1.0e-5	8.999999999999999e-5	0.01135	2162.0	2273.0	84.0	0	0	1	-59.99999999999999	59.99999999999999								
	299	6444	0.0013020000000000002	0.022486000000000003	-0.1502000000000001	1992.0000000000002	1992.0000000000002	1992.0000000000002	0	0	1	-59.99999999999999	59.99999999999999								
	1489	4035	0.012972999999999998	0.003654	0.008258	125.0	125.0	125.0	0	0	1	-59.99999999999999	59.99999999999999								
	2734	2855	0.11599999999999999	0.2778	0.005	63.3	63.3	63.3	0	0	1	-59.99999999999999	59.99999999999999								
	3508	7487	0.02453	0.04054	0.00063	43.0	52.0	43.0	0	0	1	-59.99999999999999	59.99999999999999								
	7696	4622	0.046668	0.11399	0.0291	98.0	122.0	122.0	0	0	1	-59.99999999999999	59.99999999999999								
	77	598	0.00106	0.014410000000000001	1.334	1855.0	2252.0	2252.0	0	0	1	-59.99999999999999	59.99999999999999								
	3462	462	1.0e-5	1.0e-5	0.0	0.0	0.0	0.0	0	0	1	-59.99999999999999	59.99999999999999								
	2658	2643	0.0265	0.0681	0.01692	95.0	95.0	95.0	0	0	1	-59.99999999999999	59.99999999999999								
	9716	1384	0.0219	0.0354	0.0005	30.0	30.0	48.0	0	0	1	-59.99999999999999	59.99999999999999								
	578	1907	0.00226	0.009536	0.0028000000000000004	206.0	242.0	206.0	0	0	1	-59.99999999999999	59.99999999999999								
	9273	9274	0.002525	0.008374	0.00038899999999999997	75.0	90.0	90.0	0	0	1	-59.99999999999999	59.99999999999999								
	2098	9199	0.0017000000000000001	0.0060999999999999995	0.0013	108.0	158.0	108.0	0	0	0	-59.99999999999999	59.99999999999999								
	1444	1454	0.00382	0.022170000000000002	0.012589999999999999	194.0	247.00000000000003	194.0	0	0	1	-59.99999999999999	59.99999999999999								
	10111	9183	0.032415	0.27598	0.003003	0.0	0.0	0.0	0	0	1	-59.99999999999999	59.99999999999999								
	5091	6067	0.008897	0.042512999999999995	0.07444	0.0	0.0	0.0	0	0	1	-59.99999999999999	59.99999999999999								
	564	2263	0.0178	0.0471	0.012	103.0	129.0	129.0	0	0	1	-59.99999999999999	59.99999999999999								
	568	22592	0.004006	0.014409	0.004	97.0	133.0	97.0	0	0	1	-59.99999999999999	59.99999999999999								
	4532	4515	0.00136	0.01142	0.04238	557.0	702.0	702.0	0	0	1	-59.99999999999999	59.99999999999999								
	7769	7574	0.024929999999999997	0.059269999999999996	0.001	49.0	61.0	61.0	0	0	1	-59.99999999999999	59.99999999999999								
	1449	270	5.7e-5	0.000419	0.000127	239.0	301.0	239.0	0	0	1	-59.99999999999999	59.99999999999999								
	4372	382	0.14825	0.21928999999999998	0.04827	94.0	120.0	94.0	0	0	1	-59.99999999999999	59.99999999999999								
	860	9430	0.0029	0.0084	0.002291	101.0	142.0	142.0	0	0	1	-59.99999999999999	59.99999999999999								
	11644	2341	0.0089	0.0308	0.0085	128.0	162.0	128.0	0	0	0	-59.99999999999999	59.99999999999999								
	4511	4502	0.01506	0.16143000000000002	0.5901	438.0	478.0	478.0	0	0	1	-59.99999999999999	59.99999999999999								
	13124	473	0.001656	0.006168	0.000356	159.0	159.0	159.0	0	0	1	-59.99999999999999	59.99999999999999								
	879	2483	0.011699999999999999	0.0354	0.008997	97.0	139.0	139.0	0	0	1	-59.99999999999999	59.99999999999999								
	2822	2889	0.07132	0.11674	0.0226	76.0	76.0	76.0	0	0	1	-59.99999999999999	59.99999999999999								
	7363	364	0.028999999999999998	0.0693	0.0083	125.0	125.0	125.0	0	0	1	-59.99999999999999	59.99999999999999								
	1413	1415	0.00155	0.010169999999999998	0.005699999999999999	359.0	454.0	454.0	0	0	1	-59.99999999999999	59.99999999999999								
	7460	1775	0.0009	0.0023	0.000581	122.0	130.0	122.0	0	0	1	-59.99999999999999	59.99999999999999								
	3007	3026	1.0e-5	1.0e-5	0.0	400.0	480.0	400.0	0	0	1	-59.99999999999999	59.99999999999999								
	5902	5787	0.018024	0.093902	0.17356000000000002	250.99999999999997	317.0	317.0	0	0	1	-59.99999999999999	59.99999999999999								
	2094	9677	0.026099999999999998	0.06509999999999999	0.017	134.0	162.0	134.0	0	0	1	-59.99999999999999	59.99999999999999								
	3210	1631	0.000854	0.003471	0.000931	153.0	194.0	153.0	0	0	0	-59.99999999999999	59.99999999999999								
	11921	11922	0.082308	0.17642	0.0070999999999999995	44.0	60.0	44.0	0	0	1	-59.99999999999999	59.99999999999999								
	6430	6460	0.0021	0.03392	3.976	2425.0	2425.0	2425.0	0	0	1	-59.99999999999999	59.99999999999999								
	372	9015	0.00116	0.01012	0.16628	866.0	1117.0	1117.0	0	0	1	-59.99999999999999	59.99999999999999								
	4325	3975	0.006666	0.027082000000000002	0.00726	153.0	194.0	153.0	0	0	1	-59.99999999999999	59.99999999999999								
	6061	6334	0.02267	0.11579	0.2114	295.0	370.0	370.0	0	0	1	-59.99999999999999	59.99999999999999								
	9697	2377	0.0009	0.0045000000000000005	0.00857	158.0	179.0	179.0	0	0	1	-59.99999999999999	59.99999999999999								
	376	9046	0.004547	0.011961999999999999	0.0028339999999999997	125.0	125.0	125.0	0	0	1	-59.99999999999999	59.99999999999999								
	9601	44309	5.0e-5	0.00062	0.0	1234.0	1634.0	1634.0	0	0	1	-59.99999999999999	59.99999999999999								
	426	427	0.0004	0.008199999999999999	0.7669499999999999	400.0	400.0	470.0	0	0	1	-59.99999999999999	59.99999999999999								
	7627	17627	3.0e-5	7.7e-5	1.9e-5	139.0	163.0	139.0	0	0	1	-59.99999999999999	59.99999999999999								
	23198	3184	0.0	0.0001	0.0	89.0	104.0	104.0	0	0	0	-59.99999999999999	59.99999999999999								
	22022	3856	0.0049	0.0128	0.0005	0.0	0.0	0.0	0	0	1	-59.99999999999999	59.99999999999999								
	5060	5720	0.00165	0.020059999999999998	1.1263999999999998	2187.0	2754.0	2754.0	0	0	1	-59.99999999999999	59.99999999999999								
	6801	6802	0.10369999999999999	0.1324	0.002387	33.0	41.0	33.0	0	0	1	-59.99999999999999	59.99999999999999								
	4623	3536	0.12403	0.23844	0.06276	88.0	110.00000000000001	88.0	0	0	1	-59.99999999999999	59.99999999999999								
	1485	7180	0.0377	0.0645	0.0147	94.0	94.0	94.0	0	0	1	-59.99999999999999	59.99999999999999								
	1208	2053	0.0144	0.0452	0.0007000000000000001	48.0	48.0	48.0	0	0	1	-59.99999999999999	59.99999999999999								
	21990	27627	0.01318	0.034089999999999995	0.009000000000000001	80.0	108.0	80.0	0	0	1	-59.99999999999999	59.99999999999999								
	2037	12042	0.000476	0.001199	0.0003	108.0	108.0	108.0	0	0	1	-59.99999999999999	59.99999999999999								
	1081	9567	0.027037	0.13464	0.033342000000000004	167.0	206.0	206.0	0	0	1	-59.99999999999999	59.99999999999999								
	5761	5762	0.0	0.057800000000000004	0.0	192.0	192.0	192.0	0	0	1	-59.99999999999999	59.99999999999999								
	8634	8636	0.004194	0.091546	0.011731	0.0	0.0	0.0	0	0	1	-59.99999999999999	59.99999999999999								
	788	787	0.0032	0.0155	0.02667	220.00000000000003	227.99999999999997	227.99999999999997	0	0	1	-59.99999999999999	59.99999999999999								
	8537	8560	0.0108	0.067	0.0012900000000000001	113.99999999999999	113.99999999999999	113.99999999999999	0	0	1	-59.99999999999999	59.99999999999999								
	76	74	0.0007199999999999999	0.0175	5.430000000000001	4133.0	4174.0	4174.0	0	0	1	-59.99999999999999	59.99999999999999								
	7200	7303	0.0013	0.018600000000000002	1.3444	2598.0	2598.0	2598.0	0	0	1	-59.99999999999999	59.99999999999999								
	1778	1722	0.08346	0.17088	0.002642	31.0	41.0	0.0	0	0	1	-59.99999999999999	59.99999999999999								
	13042	3047	0.0001	0.0025	0.0007000000000000001	0.0	0.0	0.0	0	0	0	-59.99999999999999	59.99999999999999								
	2237	2195	0.030059999999999996	0.06844	0.01863	103.0	117.0	103.0	0	0	1	-59.99999999999999	59.99999999999999								
	184	1432	0.0042	0.0239	0.0068000000000000005	194.0	206.99999999999997	194.0	0	0	1	-59.99999999999999	59.99999999999999								
	4623	7767	0.03807	0.07505	0.01849	84.0	105.0	84.0	0	0	1	-59.99999999999999	59.99999999999999								
	1760	1759	0.001598	0.0040100000000000005	0.001052	122.0	129.0	129.0	0	0	0	-59.99999999999999	59.99999999999999								
	1758	1751	0.0342	0.0876	0.022029999999999998	122.0	134.0	121.0	0	0	1	-59.99999999999999	59.99999999999999								
	3040	2612	0.00024	0.00062	0.000152	140.0	140.0	140.0	0	0	1	-59.99999999999999	59.99999999999999								
	2779	2751	0.009000000000000001	0.0222	0.006	121.0	121.0	121.0	0	0	1	-59.99999999999999	59.99999999999999								
	1263	1270	0.00182	0.00869	0.013999999999999999	270.0	341.0	341.0	0	0	1	-59.99999999999999	59.99999999999999								
	1082	1144	0.105	0.2621	0.0691	93.0	118.0	118.0	0	0	1	-59.99999999999999	59.99999999999999								
	1728	1793	0.015	0.0365	0.010169999999999998	111.00000000000001	129.0	111.00000000000001	0	0	1	-59.99999999999999	59.99999999999999								
	579	1944	0.00226	0.009536	0.0028000000000000004	206.0	242.0	206.0	0	0	1	-59.99999999999999	59.99999999999999								
	2478	2392	0.019	0.0641	0.001549	72.0	91.0	91.0	0	0	0	-59.99999999999999	59.99999999999999								
	1718	13587	0.08693	0.13773	0.002416	30.0	30.0	30.0	0	0	0	-59.99999999999999	59.99999999999999								
	3818	21985	0.0034000000000000002	0.0123	0.0033	95.0	139.0	95.0	0	0	0	-59.99999999999999	59.99999999999999								
	8561	8581	1.0e-5	1.0e-5	0.0	300.0	300.0	300.0	0	0	1	-59.99999999999999	59.99999999999999								
	1138	1075	0.0038	0.015300000000000001	0.004141000000000001	187.0	187.0	187.0	0	0	1	-59.99999999999999	59.99999999999999								
	3144	3145	0.21916	0.33608	0.0050123	24.0	30.0	24.0	0	0	1	-59.99999999999999	59.99999999999999								
	14238	4148	0.0	0.0001	0.0	0.0	0.0	0.0	0	0	1	-59.99999999999999	59.99999999999999								
	237	7739	0.028900000000000002	0.08410000000000001	0.022000000000000002	103.0	120.0	103.0	0	0	1	-59.99999999999999	59.99999999999999								
	3944	23944	0.00031	0.0008	0.000199	95.0	139.0	95.0	0	0	0	-59.99999999999999	59.99999999999999								
	1174	1239	2.0e-5	0.00010999999999999999	0.0	446.0	446.0	446.0	0	0	0	-59.99999999999999	59.99999999999999								
	8458	8461	0.0374	0.09	0.0016	63.0	63.0	63.0	0	0	0	-59.99999999999999	59.99999999999999								
	5098	5092	0.00743	0.044340000000000004	0.0861	398.0	458.0	458.0	0	0	1	-59.99999999999999	59.99999999999999								
	9537	821	0.0046	0.0239	0.0473	276.0	276.0	276.0	0	0	1	-59.99999999999999	59.99999999999999								
	3835	21998	0.0031	0.0113	0.003	174.0	197.0	174.0	0	0	0	-59.99999999999999	59.99999999999999								
	963	1228	0.00619	0.031509999999999996	0.05558	221.0	227.0	227.0	0	0	1	-59.99999999999999	59.99999999999999								
	210	4531	0.00191	0.028069999999999998	0.5390000000000001	2459.0	2459.0	2459.0	0	0	1	-59.99999999999999	59.99999999999999								
	701	587	0.0065710000000000005	0.027776000000000002	0.008	206.0	235.0	206.0	0	0	1	-59.99999999999999	59.99999999999999								
...
];

%% dcline data
%    f_bus    t_bus    status    Pf    Pt    Qf    Qt    Vf    Vt    Pmin    Pmax    QminF    QmaxF    QminT    QmaxT    loss0    loss1
mpc.dcline = [
	85	86	1	1125.0	1088.19140625	-0.0	-0.0	1.032	1.001	-1088.19140625	1125.0	-1120.7190353532137	0.0	-1040.6426171949786	0.0	0.0	0.0						
	85	86	1	1125.0	1088.19140625	-0.0	-0.0	1.032	1.001	-1088.19140625	1125.0	-1120.7190353532137	0.0	-1040.6426171949786	0.0	0.0	0.0						
	85	86	1	1125.0	1088.19140625	-0.0	-0.0	1.032	1.001	-1088.19140625	1125.0	-1120.7190353532137	0.0	-1040.6426171949786	0.0	0.0	0.0						
	85	86	1	1125.0	1088.19140625	-0.0	-0.0	1.032	1.001	-1088.19140625	1125.0	-1120.7190353532137	0.0	-1040.6426171949786	0.0	0.0	0.0						
	7055	7057	1	1575.0	1457.1703125	-0.0	-0.0	1.045	1.06	-1457.1703125	1575.0	-1569.0066494944992	0.0	-1393.4989000918924	0.0	0.0	0.0						
	7055	7057	1	1575.0	1457.1703125	-0.0	-0.0	1.045	1.06	-1457.1703125	1575.0	-1569.0066494944992	0.0	-1393.4989000918924	0.0	0.0	0.0						
	7055	7057	1	1575.0	1465.78359375	-0.0	-0.0	1.045	1.06	-1465.78359375	1575.0	-1569.0066494944992	0.0	-1390.0372553662787	0.0	0.0	0.0						
	7055	7057	1	1575.0	1465.78359375	-0.0	-0.0	1.045	1.06	-1465.78359375	1575.0	-1569.0066494944992	0.0	-1390.0372553662787	0.0	0.0	0.0						
	7059	7054	1	200.0	197.6841219541379	-0.0	-0.0	1.045	1.014	-197.6841219541379	200.0	-197.25712030744629	0.0	-183.28952618008847	0.0	0.0	0.0						
	7059	7054	1	200.0	197.6841219541379	-0.0	-0.0	1.045	1.014	-197.6841219541379	200.0	-197.25712030744629	0.0	-183.28952618008847	0.0	0.0	0.0						
	8100	3010	1	2000.0	1913.1250000000002	-0.0	-0.0	1.042	1.05	-1913.1250000000002	2000.0	-1951.069087891713	0.0	-1819.4899977371656	0.0	0.0	0.0						
	8100	3010	1	2000.0	1913.1250000000002	-0.0	-0.0	1.042	1.05	-1913.1250000000002	2000.0	-1951.069087891713	0.0	-1819.4899977371656	0.0	0.0	0.0						
	8100	9605	1	2000.0	1894.9375	-0.0	-0.0	1.042	1.046	-1894.9375	2000.0	-1992.389396183491	0.0	-1812.1377435027046	0.0	0.0	0.0						
	8100	9605	1	2000.0	1894.9375	-0.0	-0.0	1.042	1.046	-1894.9375	2000.0	-1992.389396183491	0.0	-1812.1377435027046	0.0	0.0	0.0						
];

%%-----  OPF Data  -----%%
%% cost data
%    1    startup    shutdown    n    x1    y1    ...    xn    yn
%    2    startup    shutdown    n    c(n-1)    ...    c0
mpc.gencost = [
	2	0.0	0.0	2	1.0	0.0
	2	0.0	0.0	2	1.0	0.0
	2	0.0	0.0	2	1.0	0.0
	2	0.0	0.0	2	1.0	0.0
	2	0.0	0.0	2	1.0	0.0
	2	0.0	0.0	2	1.0	0.0
	2	0.0	0.0	2	1.0	0.0
	2	0.0	0.0	2	1.0	0.0
	2	0.0	0.0	2	1.0	0.0
	2	0.0	0.0	2	1.0	0.0
	2	0.0	0.0	2	1.0	0.0
	2	0.0	0.0	2	1.0	0.0
	2	0.0	0.0	2	1.0	0.0
	2	0.0	0.0	2	1.0	0.0
	2	0.0	0.0	2	1.0	0.0
	2	0.0	0.0	2	1.0	0.0
	2	0.0	0.0	2	1.0	0.0
	2	0.0	0.0	2	1.0	0.0
	2	0.0	0.0	2	1.0	0.0
	2	0.0	0.0	2	1.0	0.0
	2	0.0	0.0	2	1.0	0.0
	2	0.0	0.0	2	1.0	0.0
	2	0.0	0.0	2	1.0	0.0
	2	0.0	0.0	2	1.0	0.0
	2	0.0	0.0	2	1.0	0.0
	2	0.0	0.0	2	1.0	0.0
	2	0.0	0.0	2	1.0	0.0
	2	0.0	0.0	2	1.0	0.0
	2	0.0	0.0	2	1.0	0.0
	2	0.0	0.0	2	1.0	0.0
	2	0.0	0.0	2	1.0	0.0
	2	0.0	0.0	2	1.0	0.0
	2	0.0	0.0	2	1.0	0.0
	2	0.0	0.0	2	1.0	0.0
	2	0.0	0.0	2	1.0	0.0
	2	0.0	0.0	2	1.0	0.0
	2	0.0	0.0	2	1.0	0.0
	2	0.0	0.0	2	1.0	0.0
	2	0.0	0.0	2	1.0	0.0
	2	0.0	0.0	2	1.0	0.0
	2	0.0	0.0	2	1.0	0.0
	2	0.0	0.0	2	1.0	0.0
	2	0.0	0.0	2	1.0	0.0
	2	0.0	0.0	2	1.0	0.0
	2	0.0	0.0	2	1.0	0.0
	2	0.0	0.0	2	1.0	0.0
	2	0.0	0.0	2	1.0	0.0
	2	0.0	0.0	2	1.0	0.0
	2	0.0	0.0	2	1.0	0.0
	2	0.0	0.0	2	1.0	0.0
	2	0.0	0.0	2	1.0	0.0
	2	0.0	0.0	2	1.0	0.0
	2	0.0	0.0	2	1.0	0.0
	2	0.0	0.0	2	1.0	0.0
	2	0.0	0.0	2	1.0	0.0
	2	0.0	0.0	2	1.0	0.0
	2	0.0	0.0	2	1.0	0.0
	2	0.0	0.0	2	1.0	0.0
	2	0.0	0.0	2	1.0	0.0
	2	0.0	0.0	2	1.0	0.0
	2	0.0	0.0	2	1.0	0.0
	2	0.0	0.0	2	1.0	0.0
	2	0.0	0.0	2	1.0	0.0
	2	0.0	0.0	2	1.0	0.0
	2	0.0	0.0	2	1.0	0.0
	2	0.0	0.0	2	1.0	0.0
	2	0.0	0.0	2	1.0	0.0
	2	0.0	0.0	2	1.0	0.0
	2	0.0	0.0	2	1.0	0.0
	2	0.0	0.0	2	1.0	0.0
	2	0.0	0.0	2	1.0	0.0
	2	0.0	0.0	2	1.0	0.0
	2	0.0	0.0	2	1.0	0.0
	2	0.0	0.0	2	1.0	0.0
	2	0.0	0.0	2	1.0	0.0
	2	0.0	0.0	2	1.0	0.0
	2	0.0	0.0	2	1.0	0.0
	2	0.0	0.0	2	1.0	0.0
	2	0.0	0.0	2	1.0	0.0
	2	0.0	0.0	2	1.0	0.0
	2	0.0	0.0	2	1.0	0.0
	2	0.0	0.0	2	1.0	0.0
	2	0.0	0.0	2	1.0	0.0
	2	0.0	0.0	2	1.0	0.0
	2	0.0	0.0	2	1.0	0.0
	2	0.0	0.0	2	1.0	0.0
	2	0.0	0.0	2	1.0	0.0
	2	0.0	0.0	2	1.0	0.0
	2	0.0	0.0	2	1.0	0.0
	2	0.0	0.0	2	1.0	0.0
	2	0.0	0.0	2	1.0	0.0
	2	0.0	0.0	2	1.0	0.0
	2	0.0	0.0	2	1.0	0.0
	2	0.0	0.0	2	1.0	0.0
	2	0.0	0.0	2	1.0	0.0
	2	0.0	0.0	2	1.0	0.0
	2	0.0	0.0	2	1.0	0.0
	2	0.0	0.0	2	1.0	0.0
	2	0.0	0.0	2	1.0	0.0
	2	0.0	0.0	2	1.0	0.0
	2	0.0	0.0	2	1.0	0.0
	2	0.0	0.0	2	1.0	0.0
	2	0.0	0.0	2	1.0	0.0
	2	0.0	0.0	2	1.0	0.0
	2	0.0	0.0	2	1.0	0.0
	2	0.0	0.0	2	1.0	0.0
	2	0.0	0.0	2	1.0	0.0
	2	0.0	0.0	2	1.0	0.0
	2	0.0	0.0	2	1.0	0.0
	2	0.0	0.0	2	1.0	0.0
	2	0.0	0.0	2	1.0	0.0
	2	0.0	0.0	2	1.0	0.0
	2	0.0	0.0	2	1.0	0.0
	2	0.0	0.0	2	1.0	0.0
	2	0.0	0.0	2	1.0	0.0
	2	0.0	0.0	2	1.0	0.0
	2	0.0	0.0	2	1.0	0.0
	2	0.0	0.0	2	1.0	0.0
	2	0.0	0.0	2	1.0	0.0
	2	0.0	0.0	2	1.0	0.0
	2	0.0	0.0	2	1.0	0.0
	2	0.0	0.0	2	1.0	0.0
	2	0.0	0.0	2	1.0	0.0
	2	0.0	0.0	2	1.0	0.0
	2	0.0	0.0	2	1.0	0.0
	2	0.0	0.0	2	1.0	0.0
	2	0.0	0.0	2	1.0	0.0
	2	0.0	0.0	2	1.0	0.0
	2	0.0	0.0	2	1.0	0.0
	2	0.0	0.0	2	1.0	0.0
	2	0.0	0.0	2	1.0	0.0
	2	0.0	0.0	2	1.0	0.0
	2	0.0	0.0	2	1.0	0.0
	2	0.0	0.0	2	1.0	0.0
	2	0.0	0.0	2	1.0	0.0
	2	0.0	0.0	2	1.0	0.0
	2	0.0	0.0	2	1.0	0.0
	2	0.0	0.0	2	1.0	0.0
	2	0.0	0.0	2	1.0	0.0
	2	0.0	0.0	2	1.0	0.0
	2	0.0	0.0	2	1.0	0.0
	2	0.0	0.0	2	1.0	0.0
	2	0.0	0.0	2	1.0	0.0
	2	0.0	0.0	2	1.0	0.0
	2	0.0	0.0	2	1.0	0.0
	2	0.0	0.0	2	1.0	0.0
	2	0.0	0.0	2	1.0	0.0
	2	0.0	0.0	2	1.0	0.0
	2	0.0	0.0	2	1.0	0.0
	2	0.0	0.0	2	1.0	0.0
	2	0.0	0.0	2	1.0	0.0
	2	0.0	0.0	2	1.0	0.0
	2	0.0	0.0	2	1.0	0.0
	2	0.0	0.0	2	1.0	0.0
	2	0.0	0.0	2	1.0	0.0
	2	0.0	0.0	2	1.0	0.0
	2	0.0	0.0	2	1.0	0.0
	2	0.0	0.0	2	1.0	0.0
	2	0.0	0.0	2	1.0	0.0
	2	0.0	0.0	2	1.0	0.0
	2	0.0	0.0	2	1.0	0.0
	2	0.0	0.0	2	1.0	0.0
	2	0.0	0.0	2	1.0	0.0
	2	0.0	0.0	2	1.0	0.0
	2	0.0	0.0	2	1.0	0.0
	2	0.0	0.0	2	1.0	0.0
	2	0.0	0.0	2	1.0	0.0
	2	0.0	0.0	2	1.0	0.0
	2	0.0	0.0	2	1.0	0.0
	2	0.0	0.0	2	1.0	0.0
	2	0.0	0.0	2	1.0	0.0
	2	0.0	0.0	2	1.0	0.0
	2	0.0	0.0	2	1.0	0.0
	2	0.0	0.0	2	1.0	0.0
	2	0.0	0.0	2	1.0	0.0
	2	0.0	0.0	2	1.0	0.0
	2	0.0	0.0	2	1.0	0.0
	2	0.0	0.0	2	1.0	0.0
	2	0.0	0.0	2	1.0	0.0
	2	0.0	0.0	2	1.0	0.0
	2	0.0	0.0	2	1.0	0.0
	2	0.0	0.0	2	1.0	0.0
	2	0.0	0.0	2	1.0	0.0
	2	0.0	0.0	2	1.0	0.0
	2	0.0	0.0	2	1.0	0.0
	2	0.0	0.0	2	1.0	0.0
	2	0.0	0.0	2	1.0	0.0
	2	0.0	0.0	2	1.0	0.0
	2	0.0	0.0	2	1.0	0.0
	2	0.0	0.0	2	1.0	0.0
	2	0.0	0.0	2	1.0	0.0
	2	0.0	0.0	2	1.0	0.0
	2	0.0	0.0	2	1.0	0.0
	2	0.0	0.0	2	1.0	0.0
	2	0.0	0.0	2	1.0	0.0
	2	0.0	0.0	2	1.0	0.0
	2	0.0	0.0	2	1.0	0.0
	2	0.0	0.0	2	1.0	0.0
	2	0.0	0.0	2	1.0	0.0
	2	0.0	0.0	2	1.0	0.0
...
];

%%-----  OPF Data  -----%%
%% cost data
%    1    startup    shutdown    n    x1    y1    ...    xn    yn
%    2    startup    shutdown    n    c(n-1)    ...    c0
mpc.dclinecost = [
	2	0.0	0.0	2	0.0	0.0
	2	0.0	0.0	2	0.0	0.0
	2	0.0	0.0	2	0.0	0.0
	2	0.0	0.0	2	0.0	0.0
	2	0.0	0.0	2	0.0	0.0
	2	0.0	0.0	2	0.0	0.0
	2	0.0	0.0	2	0.0	0.0
	2	0.0	0.0	2	0.0	0.0
	2	0.0	0.0	2	0.0	0.0
	2	0.0	0.0	2	0.0	0.0
	2	0.0	0.0	2	0.0	0.0
	2	0.0	0.0	2	0.0	0.0
	2	0.0	0.0	2	0.0	0.0
	2	0.0	0.0	2	0.0	0.0
];

%% bus names
mpc.bus_name = {
	'ANGRA1UNE000'
	'ANGRA2UNE001'
	'LCBARRUHE006'
	'LCBARRSIN000'
	'FUNIL-UHE001'
	'FURNASUHE005'
	'FURNASSIN000'
	'ITUMBIUHE004'
	'ITUMBISIN000'
	'MARIMBUHE005'
	'MANSO-UHE002'
	'M.MORAUHE004'
	'M.MORBUHE003'
	'PCOLOMUHE003'
	'SCRU19UTE000'
	'SCRU13UTE000'
	'SCRU16UTE000'
	'CORUMBUHE002'
	'S.MESAUHE003'
	'S.MESASIN000'
	'GRAJA2SIN001'
	'VITOR2SIN001'
	'BAND-1CER345'
	'BAND-2CER345'
	'GRAJA1SIN001'
	'CAMPOSCER345'
	'VITOR1SIN001'
	'IBIUNASIN004'
	'TPRETOSIN001'
	'P.ACU--RJ345'
	'GNA1G-UTE000'
	'GNA1V-UTE000'
	'BALTO-CER230'
	'IVAIP3-PR069'
	'IVAIP2-PR069'
	'IVAIP2-PR000'
	'IVAIP3-PR000'
	'F.IGUA-PR765'
	'FZ-500-PR500'
	'IV-FZ1CAP765'
	'IV-FZ2CAP765'
	'IV-FZ3CAP765'
	'IVAIPO-PR765'
	'IVAIPA-PR525'
	'IVAIP1-PR069'
	'IVAIP1-PR000'
	'IV-IT1CAP765'
	'IV-IT2CAP765'
	'IV-IT3CAP765'
	'ITABER-SP765'
	'IT-TP1CAP765'
	'IT-TP2CAP765'
	'IT-TP3CAP765'
	'TPRETO-SP765'
	'TPRETO-SP500'
	'TPRETO-SP345'
	'TPRETO-SP069'
	'TPRET3-SP000'
	'TPRET4-SP000'
	'TPRET2-SP345'
	'RESEN2-RJ138'
	'FOZ500-PR500'
	'IBIUNA-SP345'
	'RESEND-RJ500'
	'VIANA--ES345'
	'VIANT1-ES013'
	'SB-SM1CAP500'
	'SB-SM2CAP500'
	'SB-SM3CAP500'
	'VIANT2-ES013'
	'VIANT3-ES013'
	'AS-AR1-SP500'
	'MARIMB-MG500'
	'ARARAQ-SP500'
	'P.CALD-MG500'
	'CAMPIN-SP500'
	'C.PAUL-SP500'
	'ANGRA--RJ500'
	'ADRIAN-RJ500'
	'GRAJAU-RJ500'
	'S.JOSE-RJ500'
	'BYPSAD-RJ500'
	'GR1T52-RJ000'
	'BA-IB1-PR500'
	'BA-IB2-PR500'
	'BA-IT1-PR500'
	'BA-IT1CAP500'
	'IMBTAP-RJ138'
	'BANDT4-GO000'
	'BANDT4-GO013'
	'P.CALD-MG345'
	'PCAT51-MG000'
	'IBIUNA-SP500'
	'CAMPIN-SP345'
	'CAMP51-SP000'
	'IB-BA1CAP500'
	'GUARUL-SP345'
	'MO-RL1-SP345'
	'MO-RL2-SP345'
	'MOGI---SP345'
	'IB-BA2CAP500'
	'M.MORA-MG345'
	'ADRT1A-RJ000'
	'LCBARR-SP345'
	'JACT1A-RJ000'
	'FURNAS-MG345'
	'JACT2A-RJ000'
	'ITUTIN-MG345'
	'ADRT51-RJ000'
	'ADRIAN-RJ345'
	'ADRT53-RJ000'
	'ADRT55-RJ000'
	'ADRT2B-RJ000'
	'JACARE-RJ345'
	'ADRT1B-RJ000'
	'ADRT2A-RJ000'
	'CAMPOS-RJ345'
	'CAMPO1-RJ000'
	'VITORI-ES345'
	'VITAT1-ES000'
	'VITAT2-ES000'
	'VITAT3-ES000'
	'VITAT2-ES013'
	'VITAT3-ES013'
	'VITAT4-ES013'
	'VITAT4-ES000'
	'JA-R30-RJ013'
	'JB-R60-RJ013'
	'MO-FCE-SP230'
	'CAMAT1-SP000'
	'CAMPI1-SP013'
	'PCAT02-MG000'
	'P.CAL2-MG013'
	'JACT1B-RJ000'
	'JA-R60-RJ013'
	'SJOSE2-RJ138'
	'P.CALD-MG138'
	'CAMPI1-SP138'
	'IMBARE-RJ138'
	'ADRIAN-RJ138'
	'R.LEAO-RJ138'
	'CAMPOS-RJ138'
	'CAMP54-SP000'
	'VITOR1-ES138'
	'GRAJAU-RJ138'
	'GR2T54-RJ000'
	'JACAR2-RJ138'
	'ANGDEF-RJ138'
	'FUNIL--RJ138'
	'C.PAUL-SP138'
	'S.CRUZ-RJ138'
	'ANGRA--RJ138'
	'CAMP54-SP013'
	'M.MORA-MG138'
	'BGERT1-DF000'
	'P.COL--MG138'
	'CAMPO1-RJ013'
	'ADRT55-RJ013'
	'ADRT53-RJ013'
	'CAMP51-SP013'
	'ADRT51-RJ013'
	'PCALAT-MG013'
	'VITAT1-ES013'
	'UCAMP1-RJ000'
	'RSIL-1UTE001'
	'UCAMP2-RJ000'
	'RSIL-2UTE001'
	'ADRT1B-RJ013'
	'ADRT2A-RJ013'
	'ADRT2B-RJ013'
	'BGERT1-DF013'
	'ADRT1A-RJ013'
	'ITUMBI-MG500'
	'CAMPO2-RJ000'
	'CAMPO2-RJ013'
	'MARIMB-MG345'
	'MARIMB-MG000'
	'P.COL--MG345'
	'ITUMBI-MG345'
	'BANDEI-GO345'
	'B.SUL--DF345'
	'CORUMB-GO345'
	'B.GERA-DF034'
	'BSULT6-DF000'
	'BANDT1-GO000'
	'BANDT2-GO000'
	'ITUMBI-MG230'
	'BANDEI-GO230'
	'B.GERA-DF230'
	'B.SUL--DF230'
	'B.ALTO-GO230'
	'S.MESA-GO230'
	'R.VERD-GO230'
	'BSULT6-DF013'
	'SAMAMB-DF500'
	'SAMAMB-DF345'
	'S.MESA-GO500'
	'B.SUL--DF138'
	'SAMAMB-DF138'
	'R.VERD-GO138'
	'S.MESA-GO138'
	'RVERT1-GO000'
	'RVERT1-GO013'
	'BANDT1-GO013'
	'BANDT2-GO013'
	'BSU-T7-DF000'
	'BSULT7-DF013'
	'MARIMB-MG013'
	'C.BRAV-GO138'
	'RBOIS-TAP138'
	'RCLARO-GO138'
	'NPECA2UHE001'
	'N.PECA-RJ138'
	'N.PECA-RJ230'
	'FONTE2UHE001'
	'FONTES-RJ138'
...